*MODEL INPUT FILE            B     4     1     4   999     0
*FILES              
MODEL          CRGRO047
FILEX          EMEP1403.BNX                                                                                 
FILEA          EMEP1403.BNA                                                                                 
FILET          EMEP1403.BNT                                                                                 
SPECIES        BNGRO047.SPE                                                                                 
ECOTYPE        BNGRO047.ECO                                                                                 
CULTIVAR       BNGRO047.CUL                                                                                 
PESTS          BNGRO047.PST ./                                                                              
SOILS          GO.SOL                                                                                       
WEATHER        AFGO1401.WTH                                                                                 
OUTPUT         OVERVIEW
*SIMULATION CONTROL 
                   1     1     S 2015161  2150 Epoca 4 2015             
                   Y     Y     Y     N     N     N     N     N     M
                   M     M     E     R     S     L     R     1     G     S     3     D     0
                   R     R     R     R     M
                   N     Y     Y     1     Y     N     Y     Y     N     N     Y     N     N
!AUTOMATIC MANAGEM  
               2015128 2015129   40.  100.   30.   40.   10.
                 30.   50.  100. GS000 IR001  10.0 1.000
                 30.   50.   25. FE001 GS000
                100.     1   20.
                     0 2016182  100.    0.
*EXP.DETAILS        
  1EMEP1403 BN EMGO1401BN CULTIVAR ESPLENDOR                               
*TREATMENTS         
  4 1 0 0 Esplen_EPOCA_4_2015      
*CULTIVARS          
   BN IB0096 RODADA_GA       
*FIELDS             
   AFGO0002 AFGO1401   0.0    0. DR000    0. 100.0 00000 VFSA   180. GOST000002
           0.00000         0.00000      0.00               1.0  100.   1.0   0.0   -99   -99
*INITIAL CONDITIONS 
   BN    2015161     1     0  1.00  1.00   0.0     0  0.00  0.00  100.   15.
     10. 0.377 0.600  5.50
     20. 0.387 0.600  5.50
     30. 0.380 0.600  5.50
     40. 0.398 0.600  5.50
     50. 0.398 0.600  5.50
     60. 0.398 0.600  5.50
     70. 0.398 0.600  5.50
     80. 0.398 0.600  5.50
     90. 0.398 0.600  5.50
*PLANTING DETAILS   
   2015161     -99  33.3  33.3     S     R   45.    0.   2.0  -99.  -99. -99.0 -99.0   0.0
*IRRIGATION         
   1.000   30.   75.  -99. GS000 IR001   0.0
   2015161 IR004  20.0
   2015165 IR004  20.0
   2015170 IR004  20.0
   2015175 IR004  20.0
   2015177 IR004   8.0
   2015181 IR004  12.0
   2015183 IR004  15.0
   2015187 IR004  15.0
   2015191 IR004  20.0
   2015194 IR004   8.0
   2015197 IR004   8.0
   2015201 IR004   8.0
   2015204 IR004  17.0
   2015208 IR004  12.0
   2015212 IR004  20.0
   2015216 IR004  20.0
   2015220 IR004  20.0
   2015223 IR004  20.0
   2015227 IR004  20.0
   2015230 IR004  20.0
   2015234 IR004  20.0
   2015237 IR004  20.0
   2015240 IR004  20.0
   2015243 IR004  20.0
   2015247 IR004  20.0
   2015250 IR004  20.0
*FERTILIZERS        
   2015161 FE005 AP004    3.   23.  -99.  -99.  -99.  -99.   -99
   2015183 FE005 AP003    0.   43.  -99.  -99.  -99.  -99.   -99
   2015190 FE005 AP003    0.   43.  -99.  -99.  -99.  -99.   -99
*RESIDUES           
*CHEMICALS          
*TILLAGE            
*ENVIRONMENT        
*HARVEST            
*SOIL               
 GOST000002  CNPAF       VFSA   180. Latossolo V. Distrofico(2015)                     
 St.Antonio  Brazil      -16.500 -49.300                                                   
 R      0.14   6.0  0.30   83.  1.00  0.90 IB00  IB00  IB00  -99  
   10.       0.283 0.377 0.460 1.000 0.100  1.76 1.670  41.1  26.3   0.0 0.100  5.00-99.00 10.00-99.00
   20.       0.292 0.387 0.440 0.800 0.100  1.88 1.230  45.2  23.0   0.0 0.100  5.00-99.00  9.00-99.00
   30.       0.286 0.380 0.450 0.600 0.100  1.85 1.060  43.2  25.8   0.0 0.100  5.00-99.00  8.00-99.00
   40.       0.299 0.398 0.460 0.300 0.100  1.82 0.870  45.4  23.5   0.0 0.100  5.00-99.00  8.00-99.00
   50.       0.299 0.398 0.460 0.100 0.100  1.82 0.870  45.4  23.5   0.0 0.100  5.00-99.00  8.00-99.00
   60.       0.299 0.398 0.460 0.000 0.100  1.82 0.870  45.4  23.5   0.0 0.100  5.00-99.00  8.00-99.00
   70.       0.299 0.398 0.460 0.000 0.100  1.82 0.870  45.4  23.5   0.0 0.100  5.00-99.00  8.00-99.00
   80.       0.299 0.398 0.460 0.000 0.100  1.82 0.870  45.4  23.5   0.0 0.100  5.00-99.00  8.00-99.00
   90.       0.299 0.398 0.460 0.000 0.100  1.82 0.870  45.4  23.5   0.0 0.100  5.00-99.00  8.00-99.00
                    
   10.-99.00 -99.0 -99.0 -99.0 -99.0 -99.0 -99.0 -99.0 -99.0 -99.0-99.00 -99.0 -99.0 -99.0 -99.0 -99.0  -99.
   20.-99.00 -99.0 -99.0 -99.0 -99.0 -99.0 -99.0 -99.0 -99.0 -99.0-99.00 -99.0 -99.0 -99.0 -99.0 -99.0  -99.
   30.-99.00 -99.0 -99.0 -99.0 -99.0 -99.0 -99.0 -99.0 -99.0 -99.0-99.00 -99.0 -99.0 -99.0 -99.0 -99.0  -99.
   40.-99.00 -99.0 -99.0 -99.0 -99.0 -99.0 -99.0 -99.0 -99.0 -99.0-99.00 -99.0 -99.0 -99.0 -99.0 -99.0  -99.
   50.-99.00 -99.0 -99.0 -99.0 -99.0 -99.0 -99.0 -99.0 -99.0 -99.0-99.00 -99.0 -99.0 -99.0 -99.0 -99.0  -99.
   60.-99.00 -99.0 -99.0 -99.0 -99.0 -99.0 -99.0 -99.0 -99.0 -99.0-99.00 -99.0 -99.0 -99.0 -99.0 -99.0  -99.
   70.-99.00 -99.0 -99.0 -99.0 -99.0 -99.0 -99.0 -99.0 -99.0 -99.0-99.00 -99.0 -99.0 -99.0 -99.0 -99.0  -99.
   80.-99.00 -99.0 -99.0 -99.0 -99.0 -99.0 -99.0 -99.0 -99.0 -99.0-99.00 -99.0 -99.0 -99.0 -99.0 -99.0  -99.
   90.-99.00 -99.0 -99.0 -99.0 -99.0 -99.0 -99.0 -99.0 -99.0 -99.0-99.00 -99.0 -99.0 -99.0 -99.0 -99.0  -99.
                    
   10.-99.00-99.00-99.00-99.00
   20.-99.00-99.00-99.00-99.00
   30.-99.00-99.00-99.00-99.00
   40.-99.00-99.00-99.00-99.00
   50.-99.00-99.00-99.00-99.00
   60.-99.00-99.00-99.00-99.00
   70.-99.00-99.00-99.00-99.00
   80.-99.00-99.00-99.00-99.00
   90.-99.00-99.00-99.00-99.00
*CULTIVAR           
IB0096 RODADA_GA        MESIND 12.17 0.000 20.40  9.20  9.40 18.20  8.00 1.060 266.6 156.2  1.00 0.204 20.90  4.64  9.00  78.0 0.235 0.030
