*MODEL INPUT FILE            B     7     1     8   999     0
*FILES              
MODEL          CRGRO047
FILEX          EMEP1403.BNX                                                                                 
FILEA          EMEP1403.BNA                                                                                 
FILET          EMEP1403.BNT                                                                                 
SPECIES        BNGRO047.SPE                                                                                 
ECOTYPE        BNGRO047.ECO                                                                                 
CULTIVAR       BNGRO047.CUL                                                                                 
PESTS          BNGRO047.PST ./                                                                              
SOILS          GO.SOL                                                                                       
WEATHER        MOGO1701.WTH                                                                                 
OUTPUT         OVERVIEW
*SIMULATION CONTROL 
                   1     1     S 2017108  2150 Epoca 1 Morrinhos        
                   Y     Y     Y     N     N     N     N     N     M
                   M     M     E     R     S     L     R     1     G     S     3     D     0
                   R     R     R     R     M
                   N     Y     Y     1     Y     N     Y     Y     N     N     Y     N     N
!AUTOMATIC MANAGEM  
               2017128 2017129   40.  100.   30.   40.   10.
                 30.   50.  100. GS000 IR001  10.0 1.000
                 30.   50.   25. FE001 GS000
                100.     1   20.
                     0 2017182  100.    0.
*EXP.DETAILS        
  1EMEP1403 BN EMGO1401BN CULTIVAR ESPLENDOR                               
*TREATMENTS         
  8 1 0 0 Esplen_EPOCA_1_Mor.      
*CULTIVARS          
   BN IB0096 RODADA_GA       
*FIELDS             
   MOGO0005 MOGO1701   0.0    0. DR000    0. 100.0 00000 VFSA   180. GOST000005
           0.00000         0.00000      0.00               1.0  100.   1.0   0.0   -99   -99
*INITIAL CONDITIONS 
   BN    2017108     1     0  1.00  1.00   0.0     0  0.00  0.00  100.   15.
     10. 0.393 0.900  8.40
     20. 0.395 0.900  8.40
     30. 0.371 0.900  8.40
     40. 0.347 0.900  8.40
     50. 0.347 0.900  8.40
     60. 0.347 0.900  8.40
     70. 0.347 0.900  8.40
     80. 0.347 0.900  8.40
     90. 0.347 0.900  8.40
*PLANTING DETAILS   
   2017108     -99  30.0  30.0     S     R   50.    0.   2.0  -99.  -99. -99.0 -99.0   0.0
*IRRIGATION         
   1.000   30.   75.  -99. GS000 IR001   0.0
   2017108 IR004  13.0
   2017113 IR004  13.0
   2017117 IR004  13.0
   2017122 IR004  13.0
   2017127 IR004  13.0
   2017132 IR004  13.0
   2017137 IR004  13.0
   2017142 IR004  13.0
   2017147 IR004  13.0
   2017152 IR004  13.0
   2017157 IR004  13.0
   2017162 IR004  13.0
   2017169 IR004  13.0
   2017173 IR004  13.0
   2017178 IR004  13.0
   2017183 IR004  13.0
   2017190 IR004  13.0
   2017195 IR004  13.0
*FERTILIZERS        
   2017108 FE005 AP004    3.   20.  -99.  -99.  -99.  -99.   -99
   2017118 FE005 AP003    0.   40.  -99.  -99.  -99.  -99.   -99
   2017132 FE005 AP003    0.   60.  -99.  -99.  -99.  -99.   -99
*RESIDUES           
*CHEMICALS          
*TILLAGE            
*ENVIRONMENT        
*HARVEST            
*SOIL               
 GOST000005  CNPAF       VFSA   180. Latossolo V. Distrofico(2017)                     
 Morrinhos   Brazil      -17.430 -49.050                                                   
 R      0.14   6.0  0.30   83.  1.00  0.90 IB00  IB00  IB00  -99  
   10.       0.272 0.393 0.482 1.000 0.100  1.18 1.260  53.3  15.7   0.0 0.100  5.00-99.00 10.00-99.00
   20.       0.259 0.395 0.452 0.800 0.100  1.18 1.260  53.3  15.7   0.0 0.100  5.00-99.00  9.00-99.00
   30.       0.258 0.371 0.467 0.600 0.100  1.24 1.260  53.3  15.7   0.0 0.100  5.00-99.00  8.00-99.00
   40.       0.243 0.347 0.458 0.300 0.100  1.18 1.260  53.3  15.7   0.0 0.100  5.00-99.00  8.00-99.00
   50.       0.243 0.347 0.458 0.100 0.100  1.18 1.260  53.3  15.7   0.0 0.100  5.00-99.00  8.00-99.00
   60.       0.243 0.347 0.458 0.000 0.100  1.18 1.260  53.3  15.7   0.0 0.100  5.00-99.00  8.00-99.00
   70.       0.243 0.347 0.458 0.000 0.100  1.18 1.260  53.3  15.7   0.0 0.100  5.00-99.00  8.00-99.00
   80.       0.243 0.347 0.458 0.000 0.100  1.18 1.260  53.3  15.7   0.0 0.100  5.00-99.00  8.00-99.00
   90.       0.243 0.347 0.458 0.000 0.100  1.18 1.260  53.3  15.7   0.0 0.100  5.00-99.00  8.00-99.00
                    
   10.-99.00 -99.0 -99.0 -99.0 -99.0 -99.0 -99.0 -99.0 -99.0 -99.0-99.00 -99.0 -99.0 -99.0 -99.0 -99.0  -99.
   20.-99.00 -99.0 -99.0 -99.0 -99.0 -99.0 -99.0 -99.0 -99.0 -99.0-99.00 -99.0 -99.0 -99.0 -99.0 -99.0  -99.
   30.-99.00 -99.0 -99.0 -99.0 -99.0 -99.0 -99.0 -99.0 -99.0 -99.0-99.00 -99.0 -99.0 -99.0 -99.0 -99.0  -99.
   40.-99.00 -99.0 -99.0 -99.0 -99.0 -99.0 -99.0 -99.0 -99.0 -99.0-99.00 -99.0 -99.0 -99.0 -99.0 -99.0  -99.
   50.-99.00 -99.0 -99.0 -99.0 -99.0 -99.0 -99.0 -99.0 -99.0 -99.0-99.00 -99.0 -99.0 -99.0 -99.0 -99.0  -99.
   60.-99.00 -99.0 -99.0 -99.0 -99.0 -99.0 -99.0 -99.0 -99.0 -99.0-99.00 -99.0 -99.0 -99.0 -99.0 -99.0  -99.
   70.-99.00 -99.0 -99.0 -99.0 -99.0 -99.0 -99.0 -99.0 -99.0 -99.0-99.00 -99.0 -99.0 -99.0 -99.0 -99.0  -99.
   80.-99.00 -99.0 -99.0 -99.0 -99.0 -99.0 -99.0 -99.0 -99.0 -99.0-99.00 -99.0 -99.0 -99.0 -99.0 -99.0  -99.
   90.-99.00 -99.0 -99.0 -99.0 -99.0 -99.0 -99.0 -99.0 -99.0 -99.0-99.00 -99.0 -99.0 -99.0 -99.0 -99.0  -99.
                    
   10.-99.00-99.00-99.00-99.00
   20.-99.00-99.00-99.00-99.00
   30.-99.00-99.00-99.00-99.00
   40.-99.00-99.00-99.00-99.00
   50.-99.00-99.00-99.00-99.00
   60.-99.00-99.00-99.00-99.00
   70.-99.00-99.00-99.00-99.00
   80.-99.00-99.00-99.00-99.00
   90.-99.00-99.00-99.00-99.00
*CULTIVAR           
IB0096 RODADA_GA        MESIND 12.17 0.000 30.20  2.40  7.10 24.70 22.20 0.950 270.0 155.3  1.00 0.204 20.90  4.64  9.00  78.0 0.235 0.030
